Version 4
SHEET 1 1168 680
WIRE -48 -1040 -96 -1040
WIRE 224 -1040 32 -1040
WIRE 704 -976 464 -976
WIRE 144 -880 144 -912
WIRE 464 -880 464 -976
WIRE 512 -880 464 -880
WIRE -96 -864 -96 -1040
WIRE 112 -864 -96 -864
WIRE 704 -864 704 -896
WIRE 704 -864 576 -864
WIRE 992 -864 704 -864
WIRE 224 -848 224 -1040
WIRE 224 -848 176 -848
WIRE 320 -848 224 -848
WIRE 512 -848 320 -848
WIRE 112 -832 32 -832
WIRE -288 -816 -288 -832
WIRE -96 -816 -96 -864
WIRE 144 -800 144 -816
WIRE 32 -736 32 -832
WIRE -288 -720 -288 -736
WIRE -96 -704 -96 -736
FLAG -288 -720 0
FLAG -288 -832 VCC
FLAG 144 -800 0
FLAG 144 -912 VCC
FLAG -96 -704 0
FLAG 320 -848 PH_Vout2
FLAG -96 -816 PH_Iout
FLAG 32 -736 0
FLAG 544 -896 VCC
FLAG 544 -832 0
FLAG 992 -864 PH_Vout2*K
FLAG 384 -976 0
SYMBOL voltage -288 -832 R0
WINDOW 123 0 0 Left 2
WINDOW 39 0 0 Left 2
SYMATTR InstName V1
SYMATTR Value 5
SYMBOL current -96 -736 R180
WINDOW 0 24 80 Left 2
WINDOW 3 24 0 Left 2
WINDOW 123 0 0 Left 2
WINDOW 39 0 0 Left 2
SYMATTR InstName I2
SYMATTR Value {I}
SYMBOL res 48 -1024 M270
WINDOW 0 32 56 VTop 2
WINDOW 3 0 56 VBottom 2
SYMATTR InstName R3
SYMATTR Value 1000k
SYMBOL res 688 -992 R0
SYMATTR InstName R2
SYMATTR Value 10000k
SYMBOL res 480 -960 M270
WINDOW 0 32 56 VTop 2
WINDOW 3 0 56 VBottom 2
SYMATTR InstName R5
SYMATTR Value 18k
SYMBOL Opamps\\UniversalOpamp2 144 -848 R0
SYMATTR InstName U1
SYMBOL Opamps\\UniversalOpamp2 544 -864 R0
SYMATTR InstName U2
TEXT 446 -752 Left 2 !.tran 0 1s 0 0.1s
TEXT 112 -752 Left 2 !.step param I 0.1m 0.7m 0.1m
